Circuit: * D:\TubeAmpPedal\TubeAmpPedal\Schematic Design\tonecontrol.asc

.step y=100000
.step y=200000
.step y=300000
.step y=400000
.step y=500000
.step y=600000
.step y=700000
.step y=800000
.step y=900000
.step y=910000

Date: Sun Jul 02 02:17:16 2023
Total elapsed time: 1.000 seconds.

tnom = 27
temp = 27
method = trap
totiter = 0
traniter = 0
tranpoints = 0
accept = 0
rejected = 0
matrix size = 5
fillins = 0
solver = Normal

